<?xml version="1.0" encoding="UTF-8"?>
<routes>
  <vType accel="3.0" decel="6.0" id="CarA" length="5.0" minGap="2.5" maxSpeed="30.0" sigma="0.5" />
  <vType accel="2.0" decel="6.0" id="Emerg" length="7.5" minGap="2.5" maxSpeed="30.0" sigma="0.5" />
  
  <route id="route01" edges="L12 L24"/>
  <route id="route02" edges="L12 L23"/>
  <route id="route03" edges="L32 L21"/>
  <route id="route04" edges="L32 L24"/>
  <route id="route05" edges="L42 L23"/>
  <route id="route06" edges="L42 L21"/>
 
  <vehicle depart="0" id="veh0" route="route01" type="CarA" />
  <vehicle depart="0" id="emergencia0" route="route01" type="Emerg" color="1,0,0" /> 
  <vehicle depart="0" id="veh1" route="route02" type="CarA" />
  <vehicle depart="0" id="veh2" route="route03" type="CarA" />
  <vehicle depart="0" id="veh3" route="route04" type="CarA" />
  <vehicle depart="0" id="veh4" route="route05" type="CarA" />
  <vehicle depart="0" id="veh5" route="route06" type="CarA" />
  <vehicle depart="0" id="veh6" route="route01" type="CarA" /> 
  <vehicle depart="0" id="veh7" route="route02" type="CarA" />
  <vehicle depart="0" id="veh8" route="route03" type="CarA" />
  <vehicle depart="0" id="veh9" route="route04" type="CarA" />
  <vehicle depart="0" id="veh10" route="route05" type="CarA" />
  <vehicle depart="0" id="veh11" route="route06" type="CarA" />

  <vehicle depart="0" id="veh12" route="route01" type="CarA" />
  <vehicle depart="0" id="emergencia1" route="route02" type="Emerg" color="1,0,0"/>
  <vehicle depart="0" id="veh13" route="route02" type="CarA" />
  <vehicle depart="0" id="veh14" route="route03" type="CarA" />
  <vehicle depart="0" id="veh15" route="route04" type="CarA" />
  <vehicle depart="0" id="veh16" route="route05" type="CarA" />
  <vehicle depart="0" id="veh17" route="route06" type="CarA" />
  <vehicle depart="0" id="veh18" route="route01" type="CarA" /> 
  <vehicle depart="0" id="veh19" route="route02" type="CarA" />
  <vehicle depart="0" id="veh20" route="route03" type="CarA" />
  <vehicle depart="0" id="veh21" route="route04" type="CarA" />
  <vehicle depart="0" id="veh22" route="route05" type="CarA" />
  <vehicle depart="0" id="veh23" route="route06" type="CarA" />

  <vehicle depart="0" id="veh24" route="route01" type="CarA" />
  <vehicle depart="0" id="emergencia2" route="route03" type="Emerg" color="1,0,0"/>
  <vehicle depart="0" id="veh25" route="route02" type="CarA" />
  <vehicle depart="0" id="veh26" route="route03" type="CarA" />
  <vehicle depart="0" id="veh27" route="route04" type="CarA" />
  <vehicle depart="0" id="veh28" route="route05" type="CarA" />
  <vehicle depart="0" id="veh29" route="route06" type="CarA" />
  <vehicle depart="0" id="veh30" route="route01" type="CarA" /> 
  <vehicle depart="0" id="veh31" route="route02" type="CarA" />
  <vehicle depart="0" id="veh32" route="route03" type="CarA" />
  <vehicle depart="0" id="veh33" route="route04" type="CarA" />
  <vehicle depart="0" id="veh34" route="route05" type="CarA" />
  <vehicle depart="0" id="veh35" route="route06" type="CarA" />


  <vehicle depart="0" id="veh36" route="route01" type="CarA" />
  <vehicle depart="0" id="emergencia3" route="route04" type="Emerg" color="1,0,0"/>
  <vehicle depart="0" id="veh37" route="route02" type="CarA" />
  <vehicle depart="0" id="veh38" route="route03" type="CarA" />
  <vehicle depart="0" id="veh39" route="route04" type="CarA" />
  <vehicle depart="0" id="veh40" route="route05" type="CarA" />
  <vehicle depart="0" id="veh41" route="route06" type="CarA" />
  <vehicle depart="0" id="veh42" route="route01" type="CarA" /> 
  <vehicle depart="0" id="veh43" route="route02" type="CarA" />
  <vehicle depart="0" id="veh44" route="route03" type="CarA" />
  <vehicle depart="0" id="veh45" route="route04" type="CarA" />
  <vehicle depart="0" id="veh46" route="route05" type="CarA" />
  <vehicle depart="0" id="veh47" route="route06" type="CarA" />

  <vehicle depart="0" id="veh48" route="route01" type="CarA" />
  <vehicle depart="0" id="emergencia4" route="route05" type="Emerg" color="1,0,0"/>
  <vehicle depart="0" id="emergencia5" route="route06" type="Emerg" color="1,0,0"/>
  <vehicle depart="0" id="veh49" route="route02" type="CarA" />
  <vehicle depart="0" id="veh50" route="route03" type="CarA" />
  <vehicle depart="0" id="veh51" route="route04" type="CarA" />
  <vehicle depart="0" id="veh52" route="route05" type="CarA" />
  <vehicle depart="0" id="veh53" route="route06" type="CarA" />
  <vehicle depart="0" id="veh54" route="route01" type="CarA" /> 
  <vehicle depart="0" id="veh55" route="route02" type="CarA" />
  <vehicle depart="0" id="veh56" route="route03" type="CarA" />
  <vehicle depart="0" id="veh57" route="route04" type="CarA" />
  <vehicle depart="0" id="veh58" route="route05" type="CarA" />
  <vehicle depart="0" id="veh59" route="route06" type="CarA" />

 

</routes>