<routes>
        <vType id="westToEast" vClass="passenger" accel="1.8" decel="4.5" sigma="0.5" length="5" minGap="2.5" maxSpeed="50.67" guiShape="passenger"/>
        <vType id="eastToWest" vClass="passenger" accel="1.8" decel="4.5" sigma="0.5" length="5" minGap="2.5" maxSpeed="50.67" guiShape="passenger"/>
        <vType id="northToSouth" accel="1.8" decel="4.5" sigma="0.5" length="5" minGap="3" maxSpeed="60" 
        jmDriveAfterRedTime="10000" />

        <route id="right" edges="51o 1i 2o 52i" />
        <route id="left" edges="52o 2i 1o 51i" />
        <route id="down" edges="54o 4i 3o 53i" />
    <vehicle id="left_0" type="eastToWest" route="left" depart="0" />
    <vehicle id="left_1" type="eastToWest" route="left" depart="2" />
    <vehicle id="right_2" type="westToEast" route="right" depart="3" />
    <vehicle id="right_3" type="westToEast" route="right" depart="4" />
    <vehicle id="left_4" type="eastToWest" route="left" depart="6" />
    <vehicle id="down_5" type="northToSouth" route="down" depart="8"  color="1,0,0" >  
                                <param key="has.driverstate.device" value="true"/>
                            </vehicle>            
    <vehicle id="right_6" type="westToEast" route="right" depart="9" />
    <vehicle id="down_7" type="northToSouth" route="down" depart="13"  color="1,0,0" >  
                                <param key="has.driverstate.device" value="true"/>
                            </vehicle>            
    <vehicle id="down_8" type="northToSouth" route="down" depart="14"  color="1,0,0" >  
                                <param key="has.driverstate.device" value="true"/>
                            </vehicle>            
    <vehicle id="left_9" type="eastToWest" route="left" depart="22" />
    <vehicle id="down_10" type="northToSouth" route="down" depart="29"  color="1,0,0" >  
                                <param key="has.driverstate.device" value="true"/>
                            </vehicle>            
    <vehicle id="left_11" type="eastToWest" route="left" depart="31" />
    <vehicle id="left_12" type="eastToWest" route="left" depart="33" />
    <vehicle id="left_13" type="eastToWest" route="left" depart="41" />
    <vehicle id="right_14" type="westToEast" route="right" depart="42" />
    <vehicle id="down_15" type="northToSouth" route="down" depart="43"  color="1,0,0" >  
                                <param key="has.driverstate.device" value="true"/>
                            </vehicle>            
    <vehicle id="down_16" type="northToSouth" route="down" depart="44"  color="1,0,0" >  
                                <param key="has.driverstate.device" value="true"/>
                            </vehicle>            
    <vehicle id="left_17" type="eastToWest" route="left" depart="45" />
    <vehicle id="left_18" type="eastToWest" route="left" depart="53" />
    <vehicle id="right_19" type="westToEast" route="right" depart="55" />
    <vehicle id="down_20" type="northToSouth" route="down" depart="58"  color="1,0,0" >  
                                <param key="has.driverstate.device" value="true"/>
                            </vehicle>            
    <vehicle id="right_21" type="westToEast" route="right" depart="61" />
    <vehicle id="down_22" type="northToSouth" route="down" depart="65"  color="1,0,0" >  
                                <param key="has.driverstate.device" value="true"/>
                            </vehicle>            
    <vehicle id="right_23" type="westToEast" route="right" depart="69" />
    <vehicle id="down_24" type="northToSouth" route="down" depart="74"  color="1,0,0" >  
                                <param key="has.driverstate.device" value="true"/>
                            </vehicle>            
    <vehicle id="down_25" type="northToSouth" route="down" depart="76"  color="1,0,0" >  
                                <param key="has.driverstate.device" value="true"/>
                            </vehicle>            
    <vehicle id="right_26" type="westToEast" route="right" depart="84" />
    <vehicle id="left_27" type="eastToWest" route="left" depart="85" />
    <vehicle id="down_28" type="northToSouth" route="down" depart="89"  color="1,0,0" >  
                                <param key="has.driverstate.device" value="true"/>
                            </vehicle>            
    <vehicle id="down_29" type="northToSouth" route="down" depart="95"  color="1,0,0" >  
                                <param key="has.driverstate.device" value="true"/>
                            </vehicle>            
    <vehicle id="down_30" type="northToSouth" route="down" depart="96"  color="1,0,0" >  
                                <param key="has.driverstate.device" value="true"/>
                            </vehicle>            
    <vehicle id="right_31" type="westToEast" route="right" depart="99" />
    <vehicle id="left_32" type="eastToWest" route="left" depart="99" />
    <vehicle id="right_33" type="westToEast" route="right" depart="108" />
    <vehicle id="right_34" type="westToEast" route="right" depart="114" />
    <vehicle id="down_35" type="northToSouth" route="down" depart="122"  color="1,0,0" >  
                                <param key="has.driverstate.device" value="true"/>
                            </vehicle>            
    <vehicle id="right_36" type="westToEast" route="right" depart="125" />
    <vehicle id="left_37" type="eastToWest" route="left" depart="131" />
    <vehicle id="left_38" type="eastToWest" route="left" depart="135" />
    <vehicle id="left_39" type="eastToWest" route="left" depart="138" />
    <vehicle id="down_40" type="northToSouth" route="down" depart="139"  color="1,0,0" >  
                                <param key="has.driverstate.device" value="true"/>
                            </vehicle>            
    <vehicle id="left_41" type="eastToWest" route="left" depart="142" />
    <vehicle id="right_42" type="westToEast" route="right" depart="145" />
    <vehicle id="left_43" type="eastToWest" route="left" depart="153" />
    <vehicle id="left_44" type="eastToWest" route="left" depart="156" />
    <vehicle id="left_45" type="eastToWest" route="left" depart="160" />
    <vehicle id="left_46" type="eastToWest" route="left" depart="164" />
    <vehicle id="right_47" type="westToEast" route="right" depart="167" />
    <vehicle id="right_48" type="westToEast" route="right" depart="168" />
    <vehicle id="left_49" type="eastToWest" route="left" depart="169" />
    <vehicle id="left_50" type="eastToWest" route="left" depart="172" />
    <vehicle id="down_51" type="northToSouth" route="down" depart="172"  color="1,0,0" >  
                                <param key="has.driverstate.device" value="true"/>
                            </vehicle>            
    <vehicle id="right_52" type="westToEast" route="right" depart="176" />
    <vehicle id="right_53" type="westToEast" route="right" depart="181" />
    <vehicle id="right_54" type="westToEast" route="right" depart="183" />
    <vehicle id="left_55" type="eastToWest" route="left" depart="194" />
    <vehicle id="left_56" type="eastToWest" route="left" depart="196" />
    <vehicle id="left_57" type="eastToWest" route="left" depart="199" />
    <vehicle id="right_58" type="westToEast" route="right" depart="200" />
    <vehicle id="down_59" type="northToSouth" route="down" depart="202"  color="1,0,0" >  
                                <param key="has.driverstate.device" value="true"/>
                            </vehicle>            
    <vehicle id="left_60" type="eastToWest" route="left" depart="212" />
    <vehicle id="right_61" type="westToEast" route="right" depart="217" />
    <vehicle id="down_62" type="northToSouth" route="down" depart="218"  color="1,0,0" >  
                                <param key="has.driverstate.device" value="true"/>
                            </vehicle>            
    <vehicle id="left_63" type="eastToWest" route="left" depart="219" />
    <vehicle id="down_64" type="northToSouth" route="down" depart="227"  color="1,0,0" >  
                                <param key="has.driverstate.device" value="true"/>
                            </vehicle>            
    <vehicle id="right_65" type="westToEast" route="right" depart="228" />
    <vehicle id="left_66" type="eastToWest" route="left" depart="234" />
    <vehicle id="left_67" type="eastToWest" route="left" depart="238" />
    <vehicle id="down_68" type="northToSouth" route="down" depart="238"  color="1,0,0" >  
                                <param key="has.driverstate.device" value="true"/>
                            </vehicle>            
    <vehicle id="right_69" type="westToEast" route="right" depart="240" />
    <vehicle id="down_70" type="northToSouth" route="down" depart="242"  color="1,0,0" >  
                                <param key="has.driverstate.device" value="true"/>
                            </vehicle>            
    <vehicle id="down_71" type="northToSouth" route="down" depart="245"  color="1,0,0" >  
                                <param key="has.driverstate.device" value="true"/>
                            </vehicle>            
    <vehicle id="left_72" type="eastToWest" route="left" depart="272" />
    <vehicle id="left_73" type="eastToWest" route="left" depart="275" />
    <vehicle id="down_74" type="northToSouth" route="down" depart="283"  color="1,0,0" >  
                                <param key="has.driverstate.device" value="true"/>
                            </vehicle>            
    <vehicle id="right_75" type="westToEast" route="right" depart="284" />
    <vehicle id="right_76" type="westToEast" route="right" depart="286" />
    <vehicle id="right_77" type="westToEast" route="right" depart="288" />
    <vehicle id="right_78" type="westToEast" route="right" depart="291" />
    <vehicle id="right_79" type="westToEast" route="right" depart="294" />
    <vehicle id="down_80" type="northToSouth" route="down" depart="302"  color="1,0,0" >  
                                <param key="has.driverstate.device" value="true"/>
                            </vehicle>            
    <vehicle id="down_81" type="northToSouth" route="down" depart="309"  color="1,0,0" >  
                                <param key="has.driverstate.device" value="true"/>
                            </vehicle>            
    <vehicle id="down_82" type="northToSouth" route="down" depart="318"  color="1,0,0" >  
                                <param key="has.driverstate.device" value="true"/>
                            </vehicle>            
    <vehicle id="right_83" type="westToEast" route="right" depart="322" />
    <vehicle id="down_84" type="northToSouth" route="down" depart="323"  color="1,0,0" >  
                                <param key="has.driverstate.device" value="true"/>
                            </vehicle>            
    <vehicle id="down_85" type="northToSouth" route="down" depart="326"  color="1,0,0" >  
                                <param key="has.driverstate.device" value="true"/>
                            </vehicle>            
    <vehicle id="down_86" type="northToSouth" route="down" depart="331"  color="1,0,0" >  
                                <param key="has.driverstate.device" value="true"/>
                            </vehicle>            
    <vehicle id="down_87" type="northToSouth" route="down" depart="337"  color="1,0,0" >  
                                <param key="has.driverstate.device" value="true"/>
                            </vehicle>            
    <vehicle id="left_88" type="eastToWest" route="left" depart="339" />
    <vehicle id="right_89" type="westToEast" route="right" depart="342" />
    <vehicle id="left_90" type="eastToWest" route="left" depart="344" />
    <vehicle id="down_91" type="northToSouth" route="down" depart="344"  color="1,0,0" >  
                                <param key="has.driverstate.device" value="true"/>
                            </vehicle>            
    <vehicle id="left_92" type="eastToWest" route="left" depart="346" />
    <vehicle id="down_93" type="northToSouth" route="down" depart="349"  color="1,0,0" >  
                                <param key="has.driverstate.device" value="true"/>
                            </vehicle>            
    <vehicle id="down_94" type="northToSouth" route="down" depart="351"  color="1,0,0" >  
                                <param key="has.driverstate.device" value="true"/>
                            </vehicle>            
    <vehicle id="down_95" type="northToSouth" route="down" depart="353"  color="1,0,0" >  
                                <param key="has.driverstate.device" value="true"/>
                            </vehicle>            
    <vehicle id="right_96" type="westToEast" route="right" depart="354" />
    <vehicle id="down_97" type="northToSouth" route="down" depart="354"  color="1,0,0" >  
                                <param key="has.driverstate.device" value="true"/>
                            </vehicle>            
    <vehicle id="down_98" type="northToSouth" route="down" depart="357"  color="1,0,0" >  
                                <param key="has.driverstate.device" value="true"/>
                            </vehicle>            
    <vehicle id="down_99" type="northToSouth" route="down" depart="361"  color="1,0,0" >  
                                <param key="has.driverstate.device" value="true"/>
                            </vehicle>            
    <vehicle id="down_100" type="northToSouth" route="down" depart="363"  color="1,0,0" >  
                                <param key="has.driverstate.device" value="true"/>
                            </vehicle>            
    <vehicle id="down_101" type="northToSouth" route="down" depart="364"  color="1,0,0" >  
                                <param key="has.driverstate.device" value="true"/>
                            </vehicle>            
    <vehicle id="right_102" type="westToEast" route="right" depart="375" />
    <vehicle id="down_103" type="northToSouth" route="down" depart="377"  color="1,0,0" >  
                                <param key="has.driverstate.device" value="true"/>
                            </vehicle>            
    <vehicle id="down_104" type="northToSouth" route="down" depart="379"  color="1,0,0" >  
                                <param key="has.driverstate.device" value="true"/>
                            </vehicle>            
    <vehicle id="down_105" type="northToSouth" route="down" depart="382"  color="1,0,0" >  
                                <param key="has.driverstate.device" value="true"/>
                            </vehicle>            
    <vehicle id="right_106" type="westToEast" route="right" depart="383" />
    <vehicle id="left_107" type="eastToWest" route="left" depart="388" />
    <vehicle id="left_108" type="eastToWest" route="left" depart="389" />
    <vehicle id="left_109" type="eastToWest" route="left" depart="391" />
    <vehicle id="right_110" type="westToEast" route="right" depart="394" />
    <vehicle id="down_111" type="northToSouth" route="down" depart="394"  color="1,0,0" >  
                                <param key="has.driverstate.device" value="true"/>
                            </vehicle>            
    <vehicle id="right_112" type="westToEast" route="right" depart="395" />
    <vehicle id="down_113" type="northToSouth" route="down" depart="397"  color="1,0,0" >  
                                <param key="has.driverstate.device" value="true"/>
                            </vehicle>            
    <vehicle id="down_114" type="northToSouth" route="down" depart="399"  color="1,0,0" >  
                                <param key="has.driverstate.device" value="true"/>
                            </vehicle>            
    <vehicle id="right_115" type="westToEast" route="right" depart="412" />
    <vehicle id="left_116" type="eastToWest" route="left" depart="413" />
    <vehicle id="down_117" type="northToSouth" route="down" depart="414"  color="1,0,0" >  
                                <param key="has.driverstate.device" value="true"/>
                            </vehicle>            
    <vehicle id="left_118" type="eastToWest" route="left" depart="415" />
    <vehicle id="left_119" type="eastToWest" route="left" depart="420" />
    <vehicle id="down_120" type="northToSouth" route="down" depart="426"  color="1,0,0" >  
                                <param key="has.driverstate.device" value="true"/>
                            </vehicle>            
    <vehicle id="right_121" type="westToEast" route="right" depart="427" />
    <vehicle id="down_122" type="northToSouth" route="down" depart="438"  color="1,0,0" >  
                                <param key="has.driverstate.device" value="true"/>
                            </vehicle>            
    <vehicle id="down_123" type="northToSouth" route="down" depart="440"  color="1,0,0" >  
                                <param key="has.driverstate.device" value="true"/>
                            </vehicle>            
    <vehicle id="down_124" type="northToSouth" route="down" depart="457"  color="1,0,0" >  
                                <param key="has.driverstate.device" value="true"/>
                            </vehicle>            
    <vehicle id="right_125" type="westToEast" route="right" depart="458" />
    <vehicle id="down_126" type="northToSouth" route="down" depart="459"  color="1,0,0" >  
                                <param key="has.driverstate.device" value="true"/>
                            </vehicle>            
    <vehicle id="down_127" type="northToSouth" route="down" depart="463"  color="1,0,0" >  
                                <param key="has.driverstate.device" value="true"/>
                            </vehicle>            
    <vehicle id="right_128" type="westToEast" route="right" depart="464" />
    <vehicle id="right_129" type="westToEast" route="right" depart="467" />
    <vehicle id="left_130" type="eastToWest" route="left" depart="469" />
    <vehicle id="left_131" type="eastToWest" route="left" depart="472" />
    <vehicle id="right_132" type="westToEast" route="right" depart="473" />
    <vehicle id="left_133" type="eastToWest" route="left" depart="476" />
    <vehicle id="right_134" type="westToEast" route="right" depart="479" />
    <vehicle id="right_135" type="westToEast" route="right" depart="482" />
    <vehicle id="left_136" type="eastToWest" route="left" depart="483" />
    <vehicle id="right_137" type="westToEast" route="right" depart="484" />
    <vehicle id="left_138" type="eastToWest" route="left" depart="492" />
    <vehicle id="right_139" type="westToEast" route="right" depart="494" />
    <vehicle id="left_140" type="eastToWest" route="left" depart="496" />
    <vehicle id="down_141" type="northToSouth" route="down" depart="498"  color="1,0,0" >  
                                <param key="has.driverstate.device" value="true"/>
                            </vehicle>            
    <vehicle id="down_142" type="northToSouth" route="down" depart="501"  color="1,0,0" >  
                                <param key="has.driverstate.device" value="true"/>
                            </vehicle>            
    <vehicle id="right_143" type="westToEast" route="right" depart="502" />
    <vehicle id="down_144" type="northToSouth" route="down" depart="512"  color="1,0,0" >  
                                <param key="has.driverstate.device" value="true"/>
                            </vehicle>            
    <vehicle id="left_145" type="eastToWest" route="left" depart="514" />
    <vehicle id="down_146" type="northToSouth" route="down" depart="518"  color="1,0,0" >  
                                <param key="has.driverstate.device" value="true"/>
                            </vehicle>            
    <vehicle id="down_147" type="northToSouth" route="down" depart="520"  color="1,0,0" >  
                                <param key="has.driverstate.device" value="true"/>
                            </vehicle>            
    <vehicle id="right_148" type="westToEast" route="right" depart="523" />
    <vehicle id="left_149" type="eastToWest" route="left" depart="527" />
    <vehicle id="right_150" type="westToEast" route="right" depart="536" />
    <vehicle id="left_151" type="eastToWest" route="left" depart="536" />
    <vehicle id="left_152" type="eastToWest" route="left" depart="541" />
    <vehicle id="down_153" type="northToSouth" route="down" depart="541"  color="1,0,0" >  
                                <param key="has.driverstate.device" value="true"/>
                            </vehicle>            
    <vehicle id="left_154" type="eastToWest" route="left" depart="552" />
    <vehicle id="left_155" type="eastToWest" route="left" depart="554" />
    <vehicle id="down_156" type="northToSouth" route="down" depart="559"  color="1,0,0" >  
                                <param key="has.driverstate.device" value="true"/>
                            </vehicle>            
    <vehicle id="right_157" type="westToEast" route="right" depart="565" />
    <vehicle id="down_158" type="northToSouth" route="down" depart="573"  color="1,0,0" >  
                                <param key="has.driverstate.device" value="true"/>
                            </vehicle>            
    <vehicle id="left_159" type="eastToWest" route="left" depart="578" />
    <vehicle id="left_160" type="eastToWest" route="left" depart="579" />
    <vehicle id="left_161" type="eastToWest" route="left" depart="582" />
    <vehicle id="down_162" type="northToSouth" route="down" depart="600"  color="1,0,0" >  
                                <param key="has.driverstate.device" value="true"/>
                            </vehicle>            
    <vehicle id="left_163" type="eastToWest" route="left" depart="602" />
    <vehicle id="left_164" type="eastToWest" route="left" depart="606" />
    <vehicle id="right_165" type="westToEast" route="right" depart="612" />
    <vehicle id="down_166" type="northToSouth" route="down" depart="620"  color="1,0,0" >  
                                <param key="has.driverstate.device" value="true"/>
                            </vehicle>            
    <vehicle id="down_167" type="northToSouth" route="down" depart="624"  color="1,0,0" >  
                                <param key="has.driverstate.device" value="true"/>
                            </vehicle>            
    <vehicle id="down_168" type="northToSouth" route="down" depart="625"  color="1,0,0" >  
                                <param key="has.driverstate.device" value="true"/>
                            </vehicle>            
    <vehicle id="left_169" type="eastToWest" route="left" depart="634" />
    <vehicle id="left_170" type="eastToWest" route="left" depart="635" />
    <vehicle id="right_171" type="westToEast" route="right" depart="636" />
    <vehicle id="left_172" type="eastToWest" route="left" depart="641" />
    <vehicle id="right_173" type="westToEast" route="right" depart="644" />
    <vehicle id="down_174" type="northToSouth" route="down" depart="644"  color="1,0,0" >  
                                <param key="has.driverstate.device" value="true"/>
                            </vehicle>            
    <vehicle id="down_175" type="northToSouth" route="down" depart="645"  color="1,0,0" >  
                                <param key="has.driverstate.device" value="true"/>
                            </vehicle>            
    <vehicle id="left_176" type="eastToWest" route="left" depart="646" />
    <vehicle id="down_177" type="northToSouth" route="down" depart="653"  color="1,0,0" >  
                                <param key="has.driverstate.device" value="true"/>
                            </vehicle>            
    <vehicle id="right_178" type="westToEast" route="right" depart="654" />
    <vehicle id="left_179" type="eastToWest" route="left" depart="659" />
    <vehicle id="left_180" type="eastToWest" route="left" depart="660" />
    <vehicle id="left_181" type="eastToWest" route="left" depart="661" />
    <vehicle id="left_182" type="eastToWest" route="left" depart="663" />
    <vehicle id="right_183" type="westToEast" route="right" depart="668" />
    <vehicle id="left_184" type="eastToWest" route="left" depart="683" />
    <vehicle id="down_185" type="northToSouth" route="down" depart="700"  color="1,0,0" >  
                                <param key="has.driverstate.device" value="true"/>
                            </vehicle>            
    <vehicle id="right_186" type="westToEast" route="right" depart="701" />
    <vehicle id="right_187" type="westToEast" route="right" depart="704" />
    <vehicle id="down_188" type="northToSouth" route="down" depart="706"  color="1,0,0" >  
                                <param key="has.driverstate.device" value="true"/>
                            </vehicle>            
    <vehicle id="left_189" type="eastToWest" route="left" depart="707" />
    <vehicle id="down_190" type="northToSouth" route="down" depart="708"  color="1,0,0" >  
                                <param key="has.driverstate.device" value="true"/>
                            </vehicle>            
    <vehicle id="down_191" type="northToSouth" route="down" depart="710"  color="1,0,0" >  
                                <param key="has.driverstate.device" value="true"/>
                            </vehicle>            
    <vehicle id="left_192" type="eastToWest" route="left" depart="717" />
    <vehicle id="down_193" type="northToSouth" route="down" depart="717"  color="1,0,0" >  
                                <param key="has.driverstate.device" value="true"/>
                            </vehicle>            
    <vehicle id="right_194" type="westToEast" route="right" depart="720" />
    <vehicle id="down_195" type="northToSouth" route="down" depart="720"  color="1,0,0" >  
                                <param key="has.driverstate.device" value="true"/>
                            </vehicle>            
    <vehicle id="left_196" type="eastToWest" route="left" depart="722" />
    <vehicle id="down_197" type="northToSouth" route="down" depart="722"  color="1,0,0" >  
                                <param key="has.driverstate.device" value="true"/>
                            </vehicle>            
    <vehicle id="right_198" type="westToEast" route="right" depart="724" />
    <vehicle id="down_199" type="northToSouth" route="down" depart="726"  color="1,0,0" >  
                                <param key="has.driverstate.device" value="true"/>
                            </vehicle>            
    <vehicle id="right_200" type="westToEast" route="right" depart="731" />
    <vehicle id="down_201" type="northToSouth" route="down" depart="733"  color="1,0,0" >  
                                <param key="has.driverstate.device" value="true"/>
                            </vehicle>            
    <vehicle id="down_202" type="northToSouth" route="down" depart="736"  color="1,0,0" >  
                                <param key="has.driverstate.device" value="true"/>
                            </vehicle>            
    <vehicle id="right_203" type="westToEast" route="right" depart="738" />
    <vehicle id="left_204" type="eastToWest" route="left" depart="740" />
    <vehicle id="left_205" type="eastToWest" route="left" depart="743" />
    <vehicle id="right_206" type="westToEast" route="right" depart="744" />
    <vehicle id="right_207" type="westToEast" route="right" depart="746" />
    <vehicle id="left_208" type="eastToWest" route="left" depart="749" />
    <vehicle id="down_209" type="northToSouth" route="down" depart="750"  color="1,0,0" >  
                                <param key="has.driverstate.device" value="true"/>
                            </vehicle>            
    <vehicle id="left_210" type="eastToWest" route="left" depart="768" />
    <vehicle id="down_211" type="northToSouth" route="down" depart="772"  color="1,0,0" >  
                                <param key="has.driverstate.device" value="true"/>
                            </vehicle>            
    <vehicle id="left_212" type="eastToWest" route="left" depart="774" />
    <vehicle id="down_213" type="northToSouth" route="down" depart="776"  color="1,0,0" >  
                                <param key="has.driverstate.device" value="true"/>
                            </vehicle>            
    <vehicle id="down_214" type="northToSouth" route="down" depart="780"  color="1,0,0" >  
                                <param key="has.driverstate.device" value="true"/>
                            </vehicle>            
    <vehicle id="down_215" type="northToSouth" route="down" depart="791"  color="1,0,0" >  
                                <param key="has.driverstate.device" value="true"/>
                            </vehicle>            
    <vehicle id="down_216" type="northToSouth" route="down" depart="794"  color="1,0,0" >  
                                <param key="has.driverstate.device" value="true"/>
                            </vehicle>            
    <vehicle id="left_217" type="eastToWest" route="left" depart="801" />
    <vehicle id="right_218" type="westToEast" route="right" depart="808" />
    <vehicle id="down_219" type="northToSouth" route="down" depart="808"  color="1,0,0" >  
                                <param key="has.driverstate.device" value="true"/>
                            </vehicle>            
    <vehicle id="right_220" type="westToEast" route="right" depart="812" />
    <vehicle id="left_221" type="eastToWest" route="left" depart="812" />
    <vehicle id="down_222" type="northToSouth" route="down" depart="817"  color="1,0,0" >  
                                <param key="has.driverstate.device" value="true"/>