<routes>
        <vType id="westToEast" vClass="passenger" accel="1.8" decel="4.5" sigma="0.5" length="5" minGap="2.5" maxSpeed="50.67" guiShape="passenger"/>
        <vType id="eastToWest" vClass="passenger" accel="1.8" decel="4.5" sigma="0.5" length="5" minGap="2.5" maxSpeed="50.67" guiShape="passenger"/>
        <vType id="northToSouth" accel="1.8" decel="4.5" sigma="0.5" length="5" minGap="3" maxSpeed="60" jmDriveAfterRedTime="0"
         />

        <route id="right" edges="51o 1i 2o 52i" />
        <route id="left" edges="52o 2i 1o 51i" />
        <route id="down" edges="54o 4i 3o 53i" />
    <vehicle id="down_0" type="northToSouth" route="down" depart="0"  color="1,0,0" >  
                                <param key="has.driverstate.device" value="true"/>
                            </vehicle>            
    <vehicle id="down_1" type="northToSouth" route="down" depart="1"  color="1,0,0" >  
                                <param key="has.driverstate.device" value="true"/>
                            </vehicle>            
    <vehicle id="down_2" type="northToSouth" route="down" depart="2"  color="1,0,0" >  
                                <param key="has.driverstate.device" value="true"/>
                            </vehicle>            
    <vehicle id="down_3" type="northToSouth" route="down" depart="3"  color="1,0,0" >  
                                <param key="has.driverstate.device" value="true"/>
                            </vehicle>            
    <vehicle id="down_4" type="northToSouth" route="down" depart="4"  color="1,0,0" >  
                                <param key="has.driverstate.device" value="true"/>
                            </vehicle>            
    <vehicle id="down_5" type="northToSouth" route="down" depart="5"  color="1,0,0" >  
                                <param key="has.driverstate.device" value="true"/>
                            </vehicle>            
    <vehicle id="down_6" type="northToSouth" route="down" depart="6"  color="1,0,0" >  
                                <param key="has.driverstate.device" value="true"/>
                            </vehicle>            
    <vehicle id="down_7" type="northToSouth" route="down" depart="7"  color="1,0,0" >  
                                <param key="has.driverstate.device" value="true"/>
                            </vehicle>            
    <vehicle id="down_8" type="northToSouth" route="down" depart="8"  color="1,0,0" >  
                                <param key="has.driverstate.device" value="true"/>
                            </vehicle>            
    <vehicle id="down_9" type="northToSouth" route="down" depart="9"  color="1,0,0" >  
                                <param key="has.driverstate.device" value="true"/>
                            </vehicle>            
    <vehicle id="down_10" type="northToSouth" route="down" depart="10"  color="1,0,0" >  
                                <param key="has.driverstate.device" value="true"/>
                            </vehicle>            
    <vehicle id="down_11" type="northToSouth" route="down" depart="11"  color="1,0,0" >  
                                <param key="has.driverstate.device" value="true"/>
                            </vehicle>            
    <vehicle id="down_12" type="northToSouth" route="down" depart="12"  color="1,0,0" >  
                                <param key="has.driverstate.device" value="true"/>
                            </vehicle>            
    <vehicle id="down_13" type="northToSouth" route="down" depart="13"  color="1,0,0" >  
                                <param key="has.driverstate.device" value="true"/>
                            </vehicle>            
    <vehicle id="down_14" type="northToSouth" route="down" depart="14"  color="1,0,0" >  
                                <param key="has.driverstate.device" value="true"/>
                            </vehicle>            
    <vehicle id="down_15" type="northToSouth" route="down" depart="15"  color="1,0,0" >  
                                <param key="has.driverstate.device" value="true"/>
                            </vehicle>            
    <vehicle id="down_16" type="northToSouth" route="down" depart="16"  color="1,0,0" >  
                                <param key="has.driverstate.device" value="true"/>
                            </vehicle>            
    <vehicle id="down_17" type="northToSouth" route="down" depart="17"  color="1,0,0" >  
                                <param key="has.driverstate.device" value="true"/>
                            </vehicle>            
    <vehicle id="down_18" type="northToSouth" route="down" depart="18"  color="1,0,0" >  
                                <param key="has.driverstate.device" value="true"/>
                            </vehicle>            
    <vehicle id="down_19" type="northToSouth" route="down" depart="19"  color="1,0,0" >  
                                <param key="has.driverstate.device" value="true"/>
                            </vehicle>            
    <vehicle id="down_20" type="northToSouth" route="down" depart="20"  color="1,0,0" >  
                                <param key="has.driverstate.device" value="true"/>
                            </vehicle>            
    <vehicle id="down_21" type="northToSouth" route="down" depart="21"  color="1,0,0" >  
                                <param key="has.driverstate.device" value="true"/>
                            </vehicle>            
    <vehicle id="down_22" type="northToSouth" route="down" depart="22"  color="1,0,0" >  
                                <param key="has.driverstate.device" value="true"/>
                            </vehicle>            
    <vehicle id="down_23" type="northToSouth" route="down" depart="23"  color="1,0,0" >  
                                <param key="has.driverstate.device" value="true"/>
                            </vehicle>            
    <vehicle id="down_24" type="northToSouth" route="down" depart="24"  color="1,0,0" >  
                                <param key="has.driverstate.device" value="true"/>
                            </vehicle>            
    <vehicle id="down_25" type="northToSouth" route="down" depart="25"  color="1,0,0" >  
                                <param key="has.driverstate.device" value="true"/>
                            </vehicle>            
    <vehicle id="down_26" type="northToSouth" route="down" depart="26"  color="1,0,0" >  
                                <param key="has.driverstate.device" value="true"/>
                            </vehicle>            
    <vehicle id="down_27" type="northToSouth" route="down" depart="27"  color="1,0,0" >  
                                <param key="has.driverstate.device" value="true"/>
                            </vehicle>            
    <vehicle id="down_28" type="northToSouth" route="down" depart="28"  color="1,0,0" >  
                                <param key="has.driverstate.device" value="true"/>
                            </vehicle>            
    <vehicle id="down_29" type="northToSouth" route="down" depart="29"  color="1,0,0" >  
                                <param key="has.driverstate.device" value="true"/>
                            </vehicle>            
    <vehicle id="down_30" type="northToSouth" route="down" depart="30"  color="1,0,0" >  
                                <param key="has.driverstate.device" value="true"/>
                            </vehicle>            
    <vehicle id="down_31" type="northToSouth" route="down" depart="31"  color="1,0,0" >  
                                <param key="has.driverstate.device" value="true"/>
                            </vehicle>            
    <vehicle id="down_32" type="northToSouth" route="down" depart="32"  color="1,0,0" >  
                                <param key="has.driverstate.device" value="true"/>
                            </vehicle>            
    <vehicle id="down_33" type="northToSouth" route="down" depart="33"  color="1,0,0" >  
                                <param key="has.driverstate.device" value="true"/>
                            </vehicle>            
    <vehicle id="down_34" type="northToSouth" route="down" depart="34"  color="1,0,0" >  
                                <param key="has.driverstate.device" value="true"/>
                            </vehicle>            
    <vehicle id="down_35" type="northToSouth" route="down" depart="35"  color="1,0,0" >  
                                <param key="has.driverstate.device" value="true"/>
                            </vehicle>            
    <vehicle id="down_36" type="northToSouth" route="down" depart="36"  color="1,0,0" >  
                                <param key="has.driverstate.device" value="true"/>
                            </vehicle>            
    <vehicle id="down_37" type="northToSouth" route="down" depart="37"  color="1,0,0" >  
                                <param key="has.driverstate.device" value="true"/>
                            </vehicle>            
    <vehicle id="down_38" type="northToSouth" route="down" depart="38"  color="1,0,0" >  
                                <param key="has.driverstate.device" value="true"/>
                            </vehicle>            
    <vehicle id="down_39" type="northToSouth" route="down" depart="39"  color="1,0,0" >  
                                <param key="has.driverstate.device" value="true"/>
                            </vehicle>            
    <vehicle id="down_40" type="northToSouth" route="down" depart="40"  color="1,0,0" >  
                                <param key="has.driverstate.device" value="true"/>
                            </vehicle>            
    <vehicle id="down_41" type="northToSouth" route="down" depart="41"  color="1,0,0" >  
                                <param key="has.driverstate.device" value="true"/>
                            </vehicle>            
    <vehicle id="down_42" type="northToSouth" route="down" depart="42"  color="1,0,0" >  
                                <param key="has.driverstate.device" value="true"/>
                            </vehicle>            
    <vehicle id="down_43" type="northToSouth" route="down" depart="43"  color="1,0,0" >  
                                <param key="has.driverstate.device" value="true"/>
                            </vehicle>            
    <vehicle id="down_44" type="northToSouth" route="down" depart="44"  color="1,0,0" >  
                                <param key="has.driverstate.device" value="true"/>
                            </vehicle>            
    <vehicle id="down_45" type="northToSouth" route="down" depart="45"  color="1,0,0" >  
                                <param key="has.driverstate.device" value="true"/>
                            </vehicle>            
    <vehicle id="down_46" type="northToSouth" route="down" depart="46"  color="1,0,0" >  
                                <param key="has.driverstate.device" value="true"/>
                            </vehicle>            
    <vehicle id="down_47" type="northToSouth" route="down" depart="47"  color="1,0,0" >  
                                <param key="has.driverstate.device" value="true"/>
                            </vehicle>            
    <vehicle id="down_48" type="northToSouth" route="down" depart="48"  color="1,0,0" >  
                                <param key="has.driverstate.device" value="true"/>
                            </vehicle>            
    <vehicle id="down_49" type="northToSouth" route="down" depart="49"  color="1,0,0" >  
                                <param key="has.driverstate.device" value="true"/>
                            </vehicle>            
    <vehicle id="down_50" type="northToSouth" route="down" depart="50"  color="1,0,0" >  
                                <param key="has.driverstate.device" value="true"/>
                            </vehicle>            
    <vehicle id="down_51" type="northToSouth" route="down" depart="51"  color="1,0,0" >  
                                <param key="has.driverstate.device" value="true"/>
                            </vehicle>            
    <vehicle id="down_52" type="northToSouth" route="down" depart="52"  color="1,0,0" >  
                                <param key="has.driverstate.device" value="true"/>
                            </vehicle>            
    <vehicle id="down_53" type="northToSouth" route="down" depart="53"  color="1,0,0" >  
                                <param key="has.driverstate.device" value="true"/>
                            </vehicle>            
    <vehicle id="down_54" type="northToSouth" route="down" depart="54"  color="1,0,0" >  
                                <param key="has.driverstate.device" value="true"/>
                            </vehicle>            
    <vehicle id="down_55" type="northToSouth" route="down" depart="55"  color="1,0,0" >  
                                <param key="has.driverstate.device" value="true"/>
                            </vehicle>            
    <vehicle id="down_56" type="northToSouth" route="down" depart="56"  color="1,0,0" >  
                                <param key="has.driverstate.device" value="true"/>
                            </vehicle>            
    <vehicle id="down_57" type="northToSouth" route="down" depart="57"  color="1,0,0" >  
                                <param key="has.driverstate.device" value="true"/>
                            </vehicle>            
    <vehicle id="down_58" type="northToSouth" route="down" depart="58"  color="1,0,0" >  
                                <param key="has.driverstate.device" value="true"/>
                            </vehicle>            
    <vehicle id="down_59" type="northToSouth" route="down" depart="59"  color="1,0,0" >  
                                <param key="has.driverstate.device" value="true"/>
                            </vehicle>            
    <vehicle id="down_60" type="northToSouth" route="down" depart="60"  color="1,0,0" >  
                                <param key="has.driverstate.device" value="true"/>
                            </vehicle>            
    <vehicle id="down_61" type="northToSouth" route="down" depart="61"  color="1,0,0" >  
                                <param key="has.driverstate.device" value="true"/>
                            </vehicle>            
    <vehicle id="down_62" type="northToSouth" route="down" depart="62"  color="1,0,0" >  
                                <param key="has.driverstate.device" value="true"/>
                            </vehicle>            
    <vehicle id="down_63" type="northToSouth" route="down" depart="63"  color="1,0,0" >  
                                <param key="has.driverstate.device" value="true"/>
                            </vehicle>            
    <vehicle id="down_64" type="northToSouth" route="down" depart="64"  color="1,0,0" >  
                                <param key="has.driverstate.device" value="true"/>
                            </vehicle>            
    <vehicle id="down_65" type="northToSouth" route="down" depart="65"  color="1,0,0" >  
                                <param key="has.driverstate.device" value="true"/>
                            </vehicle>            
    <vehicle id="down_66" type="northToSouth" route="down" depart="66"  color="1,0,0" >  
                                <param key="has.driverstate.device" value="true"/>
                            </vehicle>            
    <vehicle id="down_67" type="northToSouth" route="down" depart="67"  color="1,0,0" >  
                                <param key="has.driverstate.device" value="true"/>
                            </vehicle>            
    <vehicle id="down_68" type="northToSouth" route="down" depart="68"  color="1,0,0" >  
                                <param key="has.driverstate.device" value="true"/>
                            </vehicle>            
    <vehicle id="down_69" type="northToSouth" route="down" depart="69"  color="1,0,0" >  
                                <param key="has.driverstate.device" value="true"/>
                            </vehicle>            
    <vehicle id="down_70" type="northToSouth" route="down" depart="70"  color="1,0,0" >  
                                <param key="has.driverstate.device" value="true"/>
                            </vehicle>            
    <vehicle id="down_71" type="northToSouth" route="down" depart="71"  color="1,0,0" >  
                                <param key="has.driverstate.device" value="true"/>
                            </vehicle>            
    <vehicle id="down_72" type="northToSouth" route="down" depart="72"  color="1,0,0" >  
                                <param key="has.driverstate.device" value="true"/>
                            </vehicle>            
    <vehicle id="down_73" type="northToSouth" route="down" depart="73"  color="1,0,0" >  
                                <param key="has.driverstate.device" value="true"/>
                            </vehicle>            
    <vehicle id="down_74" type="northToSouth" route="down" depart="74"  color="1,0,0" >  
                                <param key="has.driverstate.device" value="true"/>
                            </vehicle>            
    <vehicle id="down_75" type="northToSouth" route="down" depart="75"  color="1,0,0" >  
                                <param key="has.driverstate.device" value="true"/>
                            </vehicle>            
    <vehicle id="down_76" type="northToSouth" route="down" depart="76"  color="1,0,0" >  
                                <param key="has.driverstate.device" value="true"/>
                            </vehicle>            
    <vehicle id="down_77" type="northToSouth" route="down" depart="77"  color="1,0,0" >  
                                <param key="has.driverstate.device" value="true"/>
                            </vehicle>            
    <vehicle id="down_78" type="northToSouth" route="down" depart="78"  color="1,0,0" >  
                                <param key="has.driverstate.device" value="true"/>
                            </vehicle>            
    <vehicle id="down_79" type="northToSouth" route="down" depart="79"  color="1,0,0" >  
                                <param key="has.driverstate.device" value="true"/>
                            </vehicle>            
    <vehicle id="down_80" type="northToSouth" route="down" depart="80"  color="1,0,0" >  
                                <param key="has.driverstate.device" value="true"/>
                            </vehicle>            
    <vehicle id="down_81" type="northToSouth" route="down" depart="81"  color="1,0,0" >  
                                <param key="has.driverstate.device" value="true"/>
                            </vehicle>            
    <vehicle id="down_82" type="northToSouth" route="down" depart="82"  color="1,0,0" >  
                                <param key="has.driverstate.device" value="true"/>
                            </vehicle>            
    <vehicle id="down_83" type="northToSouth" route="down" depart="83"  color="1,0,0" >  
                                <param key="has.driverstate.device" value="true"/>
                            </vehicle>            
    <vehicle id="down_84" type="northToSouth" route="down" depart="84"  color="1,0,0" >  
                                <param key="has.driverstate.device" value="true"/>
                            </vehicle>            
    <vehicle id="down_85" type="northToSouth" route="down" depart="85"  color="1,0,0" >  
                                <param key="has.driverstate.device" value="true"/>
                            </vehicle>            
    <vehicle id="down_86" type="northToSouth" route="down" depart="86"  color="1,0,0" >  
                                <param key="has.driverstate.device" value="true"/>
                            </vehicle>            
    <vehicle id="down_87" type="northToSouth" route="down" depart="87"  color="1,0,0" >  
                                <param key="has.driverstate.device" value="true"/>
                            </vehicle>            
    <vehicle id="down_88" type="northToSouth" route="down" depart="88"  color="1,0,0" >  
                                <param key="has.driverstate.device" value="true"/>
                            </vehicle>            
    <vehicle id="down_89" type="northToSouth" route="down" depart="89"  color="1,0,0" >  
                                <param key="has.driverstate.device" value="true"/>
                            </vehicle>            
    <vehicle id="down_90" type="northToSouth" route="down" depart="90"  color="1,0,0" >  
                                <param key="has.driverstate.device" value="true"/>
                            </vehicle>            
    <vehicle id="down_91" type="northToSouth" route="down" depart="91"  color="1,0,0" >  
                                <param key="has.driverstate.device" value="true"/>
                            </vehicle>            
    <vehicle id="down_92" type="northToSouth" route="down" depart="92"  color="1,0,0" >  
                                <param key="has.driverstate.device" value="true"/>
                            </vehicle>            
    <vehicle id="down_93" type="northToSouth" route="down" depart="93"  color="1,0,0" >  
                                <param key="has.driverstate.device" value="true"/>
                            </vehicle>            
    <vehicle id="down_94" type="northToSouth" route="down" depart="94"  color="1,0,0" >  
                                <param key="has.driverstate.device" value="true"/>
                            </vehicle>            
    <vehicle id="down_95" type="northToSouth" route="down" depart="95"  color="1,0,0" >  
                                <param key="has.driverstate.device" value="true"/>
                            </vehicle>            
    <vehicle id="down_96" type="northToSouth" route="down" depart="96"  color="1,0,0" >  
                                <param key="has.driverstate.device" value="true"/>
                            </vehicle>            
    <vehicle id="down_97" type="northToSouth" route="down" depart="97"  color="1,0,0" >  
                                <param key="has.driverstate.device" value="true"/>
                            </vehicle>            
    <vehicle id="down_98" type="northToSouth" route="down" depart="98"  color="1,0,0" >  
                                <param key="has.driverstate.device" value="true"/>
                            </vehicle>            
    <vehicle id="down_99" type="northToSouth" route="down" depart="99"  color="1,0,0" >  
                                <param key="has.driverstate.device" value="true"/>
                            </vehicle>            
    <vehicle id="down_100" type="northToSouth" route="down" depart="100"  color="1,0,0" >  
                                <param key="has.driverstate.device" value="true"/>
                            </vehicle>            
    <vehicle id="down_101" type="northToSouth" route="down" depart="101"  color="1,0,0" >  
                                <param key="has.driverstate.device" value="true"/>
                            </vehicle>            
    <vehicle id="down_102" type="northToSouth" route="down" depart="102"  color="1,0,0" >  
                                <param key="has.driverstate.device" value="true"/>
                            </vehicle>            
    <vehicle id="down_103" type="northToSouth" route="down" depart="103"  color="1,0,0" >  
                                <param key="has.driverstate.device" value="true"/>
                            </vehicle>            
    <vehicle id="down_104" type="northToSouth" route="down" depart="104"  color="1,0,0" >  
                                <param key="has.driverstate.device" value="true"/>
                            </vehicle>            
    <vehicle id="down_105" type="northToSouth" route="down" depart="105"  color="1,0,0" >  
                                <param key="has.driverstate.device" value="true"/>
                            </vehicle>            
    <vehicle id="down_106" type="northToSouth" route="down" depart="106"  color="1,0,0" >  
                                <param key="has.driverstate.device" value="true"/>
                            </vehicle>            
    <vehicle id="down_107" type="northToSouth" route="down" depart="107"  color="1,0,0" >  
                                <param key="has.driverstate.device" value="true"/>
                            </vehicle>            
    <vehicle id="down_108" type="northToSouth" route="down" depart="108"  color="1,0,0" >  
                                <param key="has.driverstate.device" value="true"/>
                            </vehicle>            
    <vehicle id="down_109" type="northToSouth" route="down" depart="109"  color="1,0,0" >  
                                <param key="has.driverstate.device" value="true"/>
                            </vehicle>            
    <vehicle id="down_110" type="northToSouth" route="down" depart="110"  color="1,0,0" >  
                                <param key="has.driverstate.device" value="true"/>
                            </vehicle>            
    <vehicle id="down_111" type="northToSouth" route="down" depart="111"  color="1,0,0" >  
                                <param key="has.driverstate.device" value="true"/>
                            </vehicle>            
    <vehicle id="down_112" type="northToSouth" route="down" depart="112"  color="1,0,0" >  
                                <param key="has.driverstate.device" value="true"/>
                            </vehicle>            
    <vehicle id="down_113" type="northToSouth" route="down" depart="113"  color="1,0,0" >  
                                <param key="has.driverstate.device" value="true"/>
                            </vehicle>            
    <vehicle id="down_114" type="northToSouth" route="down" depart="114"  color="1,0,0" >  
                                <param key="has.driverstate.device" value="true"/>
                            </vehicle>            
    <vehicle id="down_115" type="northToSouth" route="down" depart="115"  color="1,0,0" >  
                                <param key="has.driverstate.device" value="true"/>
                            </vehicle>            
    <vehicle id="down_116" type="northToSouth" route="down" depart="116"  color="1,0,0" >  
                                <param key="has.driverstate.device" value="true"/>
                            </vehicle>            
    <vehicle id="down_117" type="northToSouth" route="down" depart="117"  color="1,0,0" >  
                                <param key="has.driverstate.device" value="true"/>
                            </vehicle>            
    <vehicle id="down_118" type="northToSouth" route="down" depart="118"  color="1,0,0" >  
                                <param key="has.driverstate.device" value="true"/>
                            </vehicle>            
    <vehicle id="down_119" type="northToSouth" route="down" depart="119"  color="1,0,0" >  
                                <param key="has.driverstate.device" value="true"/>
                            </vehicle>            
    <vehicle id="down_120" type="northToSouth" route="down" depart="120"  color="1,0,0" >  
                                <param key="has.driverstate.device" value="true"/>
                            </vehicle>            
    <vehicle id="down_121" type="northToSouth" route="down" depart="121"  color="1,0,0" >  
                                <param key="has.driverstate.device" value="true"/>
                            </vehicle>            
    <vehicle id="down_122" type="northToSouth" route="down" depart="122"  color="1,0,0" >  
                                <param key="has.driverstate.device" value="true"/>
                            </vehicle>            
    <vehicle id="down_123" type="northToSouth" route="down" depart="123"  color="1,0,0" >  
                                <param key="has.driverstate.device" value="true"/>
                            </vehicle>            
    <vehicle id="down_124" type="northToSouth" route="down" depart="124"  color="1,0,0" >  
                                <param key="has.driverstate.device" value="true"/>
                            </vehicle>            
    <vehicle id="down_125" type="northToSouth" route="down" depart="125"  color="1,0,0" >  
                                <param key="has.driverstate.device" value="true"/>
                            </vehicle>            
    <vehicle id="down_126" type="northToSouth" route="down" depart="126"  color="1,0,0" >  
                                <param key="has.driverstate.device" value="true"/>
                            </vehicle>            
    <vehicle id="down_127" type="northToSouth" route="down" depart="127"  color="1,0,0" >  
                                <param key="has.driverstate.device" value="true"/>
                            </vehicle>            
    <vehicle id="down_128" type="northToSouth" route="down" depart="128"  color="1,0,0" >  
                                <param key="has.driverstate.device" value="true"/>
                            </vehicle>            
    <vehicle id="down_129" type="northToSouth" route="down" depart="129"  color="1,0,0" >  
                                <param key="has.driverstate.device" value="true"/>
                            </vehicle>            
    <vehicle id="down_130" type="northToSouth" route="down" depart="130"  color="1,0,0" >  
                                <param key="has.driverstate.device" value="true"/>
                            </vehicle>            